INIT MASTER(S)
NASTRAN SYSTEM(319)=1
ID Femap,Femap
SOL SESTATIC
TIME 10000
CEND
  TITLE = MSC/MD Nastran Static Analysis Set
  ECHO = NONE
  DISPLACEMENT(PLOT) = ALL
  SPCFORCE(PLOT) = ALL
  OLOAD(PLOT) = ALL
  FORCE(PLOT,CORNER) = ALL
  STRESS(PLOT,CORNER) = ALL
  SPC = 1
  LOAD = 1
BEGIN BULK
$ ***************************************************************************
$   Written by : Femap with NX Nastran
$   Version    : 11.1.0
$   Translator : MSC/MD Nastran
$   From Model : 
$   Date       : Mon Nov 10 09:59:35 2014
$ ***************************************************************************
$
PARAM,POST,-1
PARAM,OGEOM,NO
PARAM,AUTOSPC,YES
PARAM,GRDPNT,0
CORD2C         1       0      0.      0.      0.      0.      0.      1.+FEMAPC1
+FEMAPC1      1.      0.      1.        
CORD2S         2       0      0.      0.      0.      0.      0.      1.+FEMAPC2
+FEMAPC2      1.      0.      1.        
$ Femap with NX Nastran Coordinate System 10 : Rectangular Coordinate System
CORD2R        10       0      0.      0.      0.      0.      0.      1.+       
+             1.      0.      0.        
$ Femap with NX Nastran Coordinate System 200 : Cylindrical Coordinate System
CORD2C       200       0      0.      0.    100.    100.      0.    100.+       
+             0.      0.    200.        
$ Femap with NX Nastran Coordinate System 661 : Rectangular Coordinate System
CORD2R       661       0      0.      0.    100.    100.      0.    100.+       
+             0.      0.    200.        
$ Femap with NX Nastran Load Set 1 : NASTRAN 1
GRID      100001       0 160.827      0.    100.       0  123456
RFORCE         1  100001       0     75.     -1.      0.      0.
$ Femap with NX Nastran Constraint Set 1 : NASTRAN SPC 1
SPC1           1    1234 1700340
SPC1           1    1234 1700341
SPC1           1    1234 1700342
SPC1           1    1234 1700343
SPC1           1    1234 1700344
SPC1           1    1234 1700345
SPC1           1    1234 1700346
SPC1           1    1234 1700347
SPC1           1    1234 1700348
SPC1           1    1234 1700349
SPC1           1    1234 1700350
SPC1           1    1234 1700351
SPC1           1    1234 1700352
SPC1           1    1234 1700353
SPC1           1    1234 1700354
SPC1           1    1234 1700355
SPC1           1    1234 1700356
SPC1           1    1234 1700357
SPC1           1    1234 1700358
SPC1           1      23 1799946
$ ... 40 like lines cut
$ Femap with NX Nastran Property 1 : .050
PSHELL         1     105     .05     105             105              0.
$ Femap with NX Nastran Property 105 : bearing_2_rotor
PSOLID       105     105       0        
$ Femap with NX Nastran Property 106 : bearing_3_rotor
PSOLID       106     106       0        
$ Femap with NX Nastran Property 109 : bearing_1_rotor
PSOLID       109     109       0        
$ Femap with NX Nastran Property 110 : SOLID Property
PSOLID       110     110       0        
$ Femap with NX Nastran Property 911406 : PLATE Property
PSHELL    911406  403153     .65  403153                              0.
$ Femap with NX Nastran Property 911409 : PLATE Property
PSHELL    911409  403153   4.226  403153                              0.
$ Femap with NX Nastran Property 1911406 : PLATE Property
PSHELL   1911406  403153     .65  403153                              0.
$ Femap with NX Nastran Material 105 : ISOTROPIC Material
MAT1         105  1.68+76461538.      .3 7.265-9      0.      0.        
$ Femap with NX Nastran Material 106 : ISOTROPIC Material
MAT1         106  1.68+76461538.      .3 7.265-9      0.      0.        
$ Femap with NX Nastran Material 109 : ISOTROPIC Material
MAT1         109  1.68+76461538.      .3 7.265-9      0.      0.        
$ Femap with NX Nastran Material 110 : ISOTROPIC Material
MAT1         110  1.68+76461538.      .3 7.265-9      0.      0.        
$ Femap with NX Nastran Material 403153 : bearing_3_rotor
MAT1      403153  1.68+76222222.     .35  4.14-4      0.      0.        
$ Femap with NX Nastran Material 900002 : ISOTROPIC Material
MAT1      900002  1.68+76222222.     .35  4.14-4      0.      0.        
GRID     1399756       0 159.518  15.109 96.5094       0
GRID     1399757       0 160.339 15.6635 96.9345       0
GRID     1399758       0  161.11 16.1587 97.4209       0
GRID     1399759       0 161.972 16.6611 97.9187       0
GRID     1399760       0 162.816 17.1148 98.3795       0
GRID     1399761       0 163.692 17.5473 98.7689       0
GRID     1399762       0   164.6  17.964 99.0979       0
GRID     1399763       0 165.521 18.3614 99.3787       0
GRID     1399764       0 166.462 18.7472 99.6015       0
GRID     1399765       0 167.419 19.1233 99.7551       0
GRID     1399766       0 168.382   19.49 99.8395       0
GRID     1399767       0 169.352 19.8437 99.8902       0
GRID     1399768       0 170.322 20.1892 99.9195       0
GRID     1399769       0 171.292 20.5276 99.9312       0
GRID     1399770       0 172.258 20.8422 99.9169       0
GRID     1399771       0 173.238 21.1493 99.8748       0
GRID     1399772       0 159.466 16.5102  95.869       0
GRID     1399773       0 160.263 17.0601 96.4351       0
GRID     1399774       0 161.035 17.5491 96.9694       0
GRID     1399775       0 161.898 18.0463  97.525       0
$ ... 9161 like lines cut
CQUAD4   1399666       11140007611400077 1399757 1399756      0.        
CQUAD4   1399667       11140007711400078 1399758 1399757      0.        
CQUAD4   1399668       11140007811400079 1399759 1399758      0.        
CQUAD4   1399669       11140007911400080 1399760 1399759      0.        
CQUAD4   1399670       11140008011400081 1399761 1399760      0.        
CQUAD4   1399671       11140008111400082 1399762 1399761      0.        
CQUAD4   1399672       11140008211400083 1399763 1399762      0.        
CQUAD4   1399673       11140008311400084 1399764 1399763      0.        
CQUAD4   1399674       11140008411400085 1399765 1399764      0.        
CQUAD4   1399675       11140008511400086 1399766 1399765      0.        
CQUAD4   1399676       11140008611400087 1399767 1399766      0.        
CQUAD4   1399677       11140008711400088 1399768 1399767      0.        
CQUAD4   1399678       11140008811400089 1399769 1399768      0.        
CQUAD4   1399679       11140008911400090 1399770 1399769      0.        
CQUAD4   1399680       11140009011400091 1399771 1399770      0.        
CQUAD4   1399681       1 1399756 1399757 1399773 1399772      0.        
CQUAD4   1399682       1 1399757 1399758 1399774 1399773      0.        
CQUAD4   1399683       1 1399758 1399759 1399775 1399774      0.        
CQUAD4   1399684       1 1399759 1399760 1399776 1399775      0.        
CQUAD4   1399685       1 1399760 1399761 1399777 1399776      0.        
$ ... 7162 like lines cut
CTRIA3   1407019       1 1701980 1701981 1701984      0.                
CQUAD4   1407020       1 1701981 1701982 1701985 1701984      0.        
CQUAD4   1407021       1 1701982 1701949 1701952 1701985      0.        
CTRIA3   1407022       1 1701980 1701984 1701987      0.                
CQUAD4   1407023       1 1701984 1701985 1701988 1701987      0.        
CQUAD4   1407024       1 1701985 1701952 1701955 1701988      0.        
CTRIA3   1407025       1 1701980 1701987 1701990      0.                
CQUAD4   1407026       1 1701987 1701988 1701991 1701990      0.        
CQUAD4   1407027       1 1701988 1701955 1701958 1701991      0.        
CTRIA3   1407028       1 1701980 1701990 1701993      0.                
CQUAD4   1407029       1 1701990 1701991 1701994 1701993      0.        
CQUAD4   1407030       1 1701991 1701958 1701961 1701994      0.        
CTRIA3   1407031       1 1701980 1701993 1701996      0.                
CQUAD4   1407032       1 1701993 1701994 1701997 1701996      0.        
CQUAD4   1407033       1 1701994 1701961 1701964 1701997      0.        
CTRIA3   1407034       1 1701980 1701996 1701999      0.                
CQUAD4   1407035       1 1701996 1701997 1702000 1701999      0.        
CQUAD4   1407036       1 1701997 1701964 1701967 1702000      0.        
CTRIA3   1407037       1 1701980 1701999 1702002      0.                
CQUAD4   1407038       1 1701999 1702000 1702003 1702002      0.        
CQUAD4   1407039       1 1702000 1701967 1701970 1702003      0.        
CTRIA3   1407040       1 1701980 1702002 1702005      0.                
CQUAD4   1407041       1 1702002 1702003 1702006 1702005      0.        
CQUAD4   1407042       1 1702003 1701970 1701973 1702006      0.        
CTRIA3   1407043       1 1701980 1702005 1702008      0.                
CQUAD4   1407044       1 1702005 1702006 1702009 1702008      0.        
CQUAD4   1407045       1 1702006 1701973 1701976 1702009      0.        
CTRIA3   1407046       1 1701980 1702008 1702011      0.                
CQUAD4   1407047       1 1702008 1702009 1702012 1702011      0.        
CQUAD4   1407048       1 1702009 1701976 1701922 1702012      0.        
CTRIA3   1407049       1 1701980 1702011 1702014      0.                
CQUAD4   1407050       1 1702011 1702012 1702015 1702014      0.        
CQUAD4   1407051       1 1702012 1701922 1701925 1702015      0.        
CTRIA3   1407052       1 1701980 1702014 1702017      0.                
CQUAD4   1407053       1 1702014 1702015 1702018 1702017      0.        
CQUAD4   1407054       1 1702015 1701925 1701928 1702018      0.        
CTRIA3   1407055       1 1701980 1702017 1702020      0.                
CQUAD4   1407056       1 1702017 1702018 1702021 1702020      0.        
CQUAD4   1407057       1 1702018 1701928 1701931 1702021      0.        
CTRIA3   1407058       1 1701980 1702020 1702023      0.                
CQUAD4   1407059       1 1702020 1702021 1702024 1702023      0.        
CQUAD4   1407060       1 1702021 1701931 1701934 1702024      0.        
CTRIA3   1407061       1 1701980 1702023 1702026      0.                
CQUAD4   1407062       1 1702023 1702024 1702027 1702026      0.        
CQUAD4   1407063       1 1702024 1701934 1701937 1702027      0.        
CTRIA3   1407064       1 1701980 1702026 1702029      0.                
CQUAD4   1407065       1 1702026 1702027 1702030 1702029      0.        
CQUAD4   1407066       1 1702027 1701937 1701940 1702030      0.        
CTRIA3   1407067       1 1701980 1702029 1702032      0.                
CQUAD4   1407068       1 1702029 1702030 1702033 1702032      0.        
CQUAD4   1407069       1 1702030 1701940 1701943 1702033      0.        
CTRIA3   1407070       1 1701980 1702032 1702035      0.                
CQUAD4   1407071       1 1702032 1702033 1702036 1702035      0.        
CQUAD4   1407072       1 1702033 1701943 1701946 1702036      0.        
CTRIA3   1407073       1 1701980 1702035 1701981      0.                
CQUAD4   1407074       1 1702035 1702036 1701982 1701981      0.        
CQUAD4   1407075       1 1702036 1701946 1701949 1701982      0.        
CQUAD4   1407076       1 1701949 1701952 1702062 1702061      0.        
CQUAD4   1407077       1 1701952 1701955 1702063 1702062      0.        
CQUAD4   1407078       1 1701955 1701958 1702064 1702063      0.        
CQUAD4   1407079       1 1701958 1701961 1702065 1702064      0.        
CQUAD4   1407080       1 1701961 1701964 1702066 1702065      0.        
CQUAD4   1407081       1 1701964 1701967 1702067 1702066      0.        
CQUAD4   1407082       1 1701967 1701970 1702068 1702067      0.        
CQUAD4   1407083       1 1701970 1701973 1702069 1702068      0.        
CQUAD4   1407084       1 1701973 1701976 1702070 1702069      0.        
CQUAD4   1407085       1 1701976 1701922 1702071 1702070      0.        
CQUAD4   1407086       1 1701922 1701925 1702072 1702071      0.        
CQUAD4   1407087       1 1701925 1701928 1702073 1702072      0.        
CQUAD4   1407088       1 1701928 1701931 1702074 1702073      0.        
CQUAD4   1407089       1 1701931 1701934 1702075 1702074      0.        
CQUAD4   1407090       1 1701934 1701937 1702076 1702075      0.        
CQUAD4   1407091       1 1701937 1701940 1702077 1702076      0.        
CQUAD4   1407092       1 1701940 1701943 1702078 1702077      0.        
CQUAD4   1407093       1 1701943 1701946 1702079 1702078      0.        
$ ... 666 like lines cut
CTRIA3   1799780       1 1799870 1799871 1799874      0.                
CQUAD4   1799781       1 1799871 1799872 1799875 1799874      0.        
CQUAD4   1799782       1 1799872 1700808 1700809 1799875      0.        
CTRIA3   1799783       1 1799870 1799874 1799877      0.                
CQUAD4   1799784       1 1799874 1799875 1799878 1799877      0.        
CQUAD4   1799785       1 1799875 1700809 1700810 1799878      0.        
CTRIA3   1799786       1 1799870 1799877 1799880      0.                
CQUAD4   1799787       1 1799877 1799878 1799881 1799880      0.        
CQUAD4   1799788       1 1799878 1700810 1700811 1799881      0.        
CTRIA3   1799789       1 1799870 1799880 1799883      0.                
CQUAD4   1799790       1 1799880 1799881 1799884 1799883      0.        
CQUAD4   1799791       1 1799881 1700811 1700812 1799884      0.        
CTRIA3   1799792       1 1799870 1799883 1799886      0.                
CQUAD4   1799793       1 1799883 1799884 1799887 1799886      0.        
CQUAD4   1799794       1 1799884 1700812 1700813 1799887      0.        
CTRIA3   1799795       1 1799870 1799886 1799889      0.                
CQUAD4   1799796       1 1799886 1799887 1799890 1799889      0.        
CQUAD4   1799797       1 1799887 1700813 1700814 1799890      0.        
CTRIA3   1799798       1 1799870 1799889 1799892      0.                
CQUAD4   1799799       1 1799889 1799890 1799893 1799892      0.        
CQUAD4   1799800       1 1799890 1700814 1700815 1799893      0.        
CTRIA3   1799801       1 1799870 1799892 1799895      0.                
CQUAD4   1799802       1 1799892 1799893 1799896 1799895      0.        
CQUAD4   1799803       1 1799893 1700815 1700816 1799896      0.        
CTRIA3   1799804       1 1799870 1799895 1799898      0.                
CQUAD4   1799805       1 1799895 1799896 1799899 1799898      0.        
CQUAD4   1799806       1 1799896 1700816 1700817 1799899      0.        
CTRIA3   1799807       1 1799870 1799898 1799901      0.                
CQUAD4   1799808       1 1799898 1799899 1799902 1799901      0.        
CQUAD4   1799809       1 1799899 1700817 1700818 1799902      0.        
CTRIA3   1799810       1 1799870 1799901 1799904      0.                
CQUAD4   1799811       1 1799901 1799902 1799905 1799904      0.        
CQUAD4   1799812       1 1799902 1700818 1700800 1799905      0.        
CTRIA3   1799813       1 1799870 1799904 1799907      0.                
CQUAD4   1799814       1 1799904 1799905 1799908 1799907      0.        
CQUAD4   1799815       1 1799905 1700800 1700801 1799908      0.        
CTRIA3   1799816       1 1799870 1799907 1799910      0.                
CQUAD4   1799817       1 1799907 1799908 1799911 1799910      0.        
CQUAD4   1799818       1 1799908 1700801 1700802 1799911      0.        
CTRIA3   1799819       1 1799870 1799910 1799913      0.                
CQUAD4   1799820       1 1799910 1799911 1799914 1799913      0.        
CQUAD4   1799821       1 1799911 1700802 1700803 1799914      0.        
CTRIA3   1799822       1 1799870 1799913 1799916      0.                
CQUAD4   1799823       1 1799913 1799914 1799917 1799916      0.        
CQUAD4   1799824       1 1799914 1700803 1700804 1799917      0.        
CTRIA3   1799825       1 1799870 1799916 1799919      0.                
CQUAD4   1799826       1 1799916 1799917 1799920 1799919      0.        
CQUAD4   1799827       1 1799917 1700804 1700805 1799920      0.        
CTRIA3   1799828       1 1799870 1799919 1799922      0.                
CQUAD4   1799829       1 1799919 1799920 1799923 1799922      0.        
CQUAD4   1799830       1 1799920 1700805 1700806 1799923      0.        
CTRIA3   1799831       1 1799870 1799922 1799925      0.                
CQUAD4   1799832       1 1799922 1799923 1799926 1799925      0.        
CQUAD4   1799833       1 1799923 1700806 1700807 1799926      0.        
CTRIA3   1799834       1 1799870 1799925 1799871      0.                
CQUAD4   1799835       1 1799925 1799926 1799872 1799871      0.        
CQUAD4   1799836       1 1799926 1700807 1700808 1799872      0.        
CTRIA3   1799837       1 1799946 1799947 1799949      0.                
CQUAD4   1799838       1 1799947 1799948 1799950 1799949      0.        
CQUAD4   1799839       1 1799948 1700908 1700909 1799950      0.        
$ ... 54 like lines cut
CQUAD4   1799894       1 1700917 1799986 1799989 1700918      0.        
CQUAD4   1799895       1 1799986 1699963 1699965 1799989      0.        
CQUAD4   1799896       1 1700918 1799989 1799992 1700900      0.        
CQUAD4   1799897       1 1799989 1699965 1699967 1799992      0.        
CQUAD4   1799898       1 1700900 1799992 1799995 1700901      0.        
CQUAD4   1799899       1 1799992 1699967 1699969 1799995      0.        
CQUAD4   1799900       1 1700901 1799995 1799998 1700902      0.        
CQUAD4   1799901       1 1799995 1699969 1699971 1799998      0.        
CQUAD4   1799902       1 1700902 1799998 1800001 1700903      0.        
CQUAD4   1799903       1 1799998 1699971 1699935 1800001      0.        
CQUAD4   1799904       1 1700903 1800001 1800004 1700904      0.        
CQUAD4   1799905       1 1800001 1699935 1699937 1800004      0.        
CQUAD4   1799906       1 1700904 1800004 1800007 1700905      0.        
CQUAD4   1799907       1 1800004 1699937 1699939 1800007      0.        
CQUAD4   1799908       1 1700905 1800007 1800010 1700906      0.        
CQUAD4   1799909       1 1800007 1699939 1699941 1800010      0.        
CQUAD4   1799910       1 1700906 1800010 1800013 1700907      0.        
CQUAD4   1799911       1 1800010 1699941 1699943 1800013      0.        
CQUAD4   1799912       1 1700907 1800013 1800016 1700908      0.        
CQUAD4   1799913       1 1800013 1699943 1699945 1800016      0.        
$ ... 18 like lines cut
CTRIA3   1800084       1 1800234 1800235 1800237      0.                
CQUAD4   1800085       1 1800235 1800236 1800238 1800237      0.        
CQUAD4   1800086       1 1800236 1700348 1700349 1800238      0.        
CTRIA3   1800087       1 1800234 1800237 1800239      0.                
CQUAD4   1800088       1 1800237 1800238 1800240 1800239      0.        
CQUAD4   1800089       1 1800238 1700349 1700350 1800240      0.        
CTRIA3   1800090       1 1800234 1800239 1800241      0.                
CQUAD4   1800091       1 1800239 1800240 1800242 1800241      0.        
CQUAD4   1800092       1 1800240 1700350 1700351 1800242      0.        
CTRIA3   1800093       1 1800234 1800241 1800243      0.                
CQUAD4   1800094       1 1800241 1800242 1800244 1800243      0.        
CQUAD4   1800095       1 1800242 1700351 1700352 1800244      0.        
CTRIA3   1800096       1 1800234 1800243 1800245      0.                
CQUAD4   1800097       1 1800243 1800244 1800246 1800245      0.        
CQUAD4   1800098       1 1800244 1700352 1700353 1800246      0.        
CTRIA3   1800099       1 1800234 1800245 1800247      0.                
CQUAD4   1800100       1 1800245 1800246 1800248 1800247      0.        
CQUAD4   1800101       1 1800246 1700353 1700354 1800248      0.        
CTRIA3   1800102       1 1800234 1800247 1800249      0.                
CQUAD4   1800103       1 1800247 1800248 1800250 1800249      0.        
CQUAD4   1800104       1 1800248 1700354 1700355 1800250      0.        
CTRIA3   1800105       1 1800234 1800249 1800251      0.                
CQUAD4   1800106       1 1800249 1800250 1800252 1800251      0.        
CQUAD4   1800107       1 1800250 1700355 1700356 1800252      0.        
CTRIA3   1800108       1 1800234 1800251 1800253      0.                
CQUAD4   1800109       1 1800251 1800252 1800254 1800253      0.        
CQUAD4   1800110       1 1800252 1700356 1700357 1800254      0.        
CTRIA3   1800111       1 1800234 1800253 1800255      0.                
CQUAD4   1800112       1 1800253 1800254 1800256 1800255      0.        
CQUAD4   1800113       1 1800254 1700357 1700358 1800256      0.        
CTRIA3   1800114       1 1800234 1800255 1800257      0.                
CQUAD4   1800115       1 1800255 1800256 1800258 1800257      0.        
CQUAD4   1800116       1 1800256 1700358 1700340 1800258      0.        
CTRIA3   1800117       1 1800234 1800257 1800259      0.                
CQUAD4   1800118       1 1800257 1800258 1800260 1800259      0.        
CQUAD4   1800119       1 1800258 1700340 1700341 1800260      0.        
CTRIA3   1800120       1 1800234 1800259 1800261      0.                
CQUAD4   1800121       1 1800259 1800260 1800262 1800261      0.        
CQUAD4   1800122       1 1800260 1700341 1700342 1800262      0.        
CTRIA3   1800123       1 1800234 1800261 1800263      0.                
CQUAD4   1800124       1 1800261 1800262 1800264 1800263      0.        
CQUAD4   1800125       1 1800262 1700342 1700343 1800264      0.        
CTRIA3   1800126       1 1800234 1800263 1800265      0.                
CQUAD4   1800127       1 1800263 1800264 1800266 1800265      0.        
CQUAD4   1800128       1 1800264 1700343 1700344 1800266      0.        
CTRIA3   1800129       1 1800234 1800265 1800267      0.                
CQUAD4   1800130       1 1800265 1800266 1800268 1800267      0.        
CQUAD4   1800131       1 1800266 1700344 1700345 1800268      0.        
CTRIA3   1800132       1 1800234 1800267 1800269      0.                
CQUAD4   1800133       1 1800267 1800268 1800270 1800269      0.        
CQUAD4   1800134       1 1800268 1700345 1700346 1800270      0.        
CTRIA3   1800135       1 1800234 1800269 1800271      0.                
CQUAD4   1800136       1 1800269 1800270 1800272 1800271      0.        
CQUAD4   1800137       1 1800270 1700346 1700347 1800272      0.        
CTRIA3   1800138       1 1800234 1800271 1800235      0.                
CQUAD4   1800139       1 1800271 1800272 1800236 1800235      0.        
CQUAD4   1800140       1 1800272 1700347 1700348 1800236      0.        
CTRIA3   1800141       1 1800292 1800293 1800295      0.                
CQUAD4   1800142       1 1800293 1800294 1800296 1800295      0.        
CQUAD4   1800143       1 1800294 1700628 1700629 1800296      0.        
$ ... 57 like lines cut
CQUAD4   1800258       1 1900005 1702211 1702212 1900009      0.        
CTRIA3   1800259       1 1900002 1900007 1900011      0.                
CQUAD4   1800260       1 1900007 1900008 1900012 1900011      0.        
CQUAD4   1800261       1 1900008 1900009 1900013 1900012      0.        
CQUAD4   1800262       1 1900009 1702212 1702213 1900013      0.        
CTRIA3   1800263       1 1900002 1900011 1900015      0.                
CQUAD4   1800264       1 1900011 1900012 1900016 1900015      0.        
CQUAD4   1800265       1 1900012 1900013 1900017 1900016      0.        
CQUAD4   1800266       1 1900013 1702213 1702214 1900017      0.        
CTRIA3   1800267       1 1900002 1900015 1900019      0.                
CQUAD4   1800268       1 1900015 1900016 1900020 1900019      0.        
CQUAD4   1800269       1 1900016 1900017 1900021 1900020      0.        
CQUAD4   1800270       1 1900017 1702214 1702215 1900021      0.        
CTRIA3   1800271       1 1900002 1900019 1900023      0.                
CQUAD4   1800272       1 1900019 1900020 1900024 1900023      0.        
CQUAD4   1800273       1 1900020 1900021 1900025 1900024      0.        
CQUAD4   1800274       1 1900021 1702215 1702216 1900025      0.        
CTRIA3   1800275       1 1900002 1900023 1900027      0.                
CQUAD4   1800276       1 1900023 1900024 1900028 1900027      0.        
CQUAD4   1800277       1 1900024 1900025 1900029 1900028      0.        
CQUAD4   1800278       1 1900025 1702216 1702217 1900029      0.        
CTRIA3   1800279       1 1900002 1900027 1900031      0.                
CQUAD4   1800280       1 1900027 1900028 1900032 1900031      0.        
CQUAD4   1800281       1 1900028 1900029 1900033 1900032      0.        
CQUAD4   1800282       1 1900029 1702217 1702218 1900033      0.        
CTRIA3   1800283       1 1900002 1900031 1900035      0.                
CQUAD4   1800284       1 1900031 1900032 1900036 1900035      0.        
CQUAD4   1800285       1 1900032 1900033 1900037 1900036      0.        
CQUAD4   1800286       1 1900033 1702218 1702200 1900037      0.        
CTRIA3   1800287       1 1900002 1900035 1900039      0.                
CQUAD4   1800288       1 1900035 1900036 1900040 1900039      0.        
CQUAD4   1800289       1 1900036 1900037 1900041 1900040      0.        
CQUAD4   1800290       1 1900037 1702200 1702201 1900041      0.        
CTRIA3   1800291       1 1900002 1900039 1900043      0.                
CQUAD4   1800292       1 1900039 1900040 1900044 1900043      0.        
CQUAD4   1800293       1 1900040 1900041 1900045 1900044      0.        
CQUAD4   1800294       1 1900041 1702201 1702202 1900045      0.        
CTRIA3   1800295       1 1900002 1900043 1900047      0.                
CQUAD4   1800296       1 1900043 1900044 1900048 1900047      0.        
CQUAD4   1800297       1 1900044 1900045 1900049 1900048      0.        
CQUAD4   1800298       1 1900045 1702202 1702203 1900049      0.        
CTRIA3   1800299       1 1900002 1900047 1900051      0.                
CQUAD4   1800300       1 1900047 1900048 1900052 1900051      0.        
CQUAD4   1800301       1 1900048 1900049 1900053 1900052      0.        
CQUAD4   1800302       1 1900049 1702203 1702204 1900053      0.        
CTRIA3   1800303       1 1900002 1900051 1900055      0.                
CQUAD4   1800304       1 1900051 1900052 1900056 1900055      0.        
CQUAD4   1800305       1 1900052 1900053 1900057 1900056      0.        
CQUAD4   1800306       1 1900053 1702204 1702205 1900057      0.        
CTRIA3   1800307       1 1900002 1900055 1900059      0.                
CQUAD4   1800308       1 1900055 1900056 1900060 1900059      0.        
CQUAD4   1800309       1 1900056 1900057 1900061 1900060      0.        
CQUAD4   1800310       1 1900057 1702205 1702206 1900061      0.        
CTRIA3   1800311       1 1900002 1900059 1900063      0.                
CQUAD4   1800312       1 1900059 1900060 1900064 1900063      0.        
CQUAD4   1800313       1 1900060 1900061 1900065 1900064      0.        
CQUAD4   1800314       1 1900061 1702206 1702207 1900065      0.        
CTRIA3   1800315       1 1900002 1900063 1900067      0.                
CQUAD4   1800316       1 1900063 1900064 1900068 1900067      0.        
CQUAD4   1800317       1 1900064 1900065 1900069 1900068      0.        
CQUAD4   1800318       1 1900065 1702207 1702208 1900069      0.        
CTRIA3   1800319       1 1900002 1900067 1900071      0.                
CQUAD4   1800320       1 1900067 1900068 1900072 1900071      0.        
CQUAD4   1800321       1 1900068 1900069 1900073 1900072      0.        
CQUAD4   1800322       1 1900069 1702208 1702209 1900073      0.        
CTRIA3   1800323       1 1900002 1900071 1900075      0.                
CQUAD4   1800324       1 1900071 1900072 1900076 1900075      0.        
CQUAD4   1800325       1 1900072 1900073 1900077 1900076      0.        
CQUAD4   1800326       1 1900073 1702209 1702210 1900077      0.        
CTRIA3   1800327       1 1900002 1900075 1900003      0.                
CQUAD4   1800328       1 1900075 1900076 1900004 1900003      0.        
CQUAD4   1800329       1 1900076 1900077 1900005 1900004      0.        
CQUAD4   1800330       1 1900077 1702210 1702211 1900005      0.        
CQUAD4   2000000       1 1700600 17006012000000120000000      0.        
CQUAD4   2000001       1 1700601 17006022000000220000001      0.        
CQUAD4   2000002       1 1700602 17006032000000320000002      0.        
CQUAD4   2000003       1 1700603 17006042000000420000003      0.        
CQUAD4   2000004       1 1700604 17006052000000520000004      0.        
CQUAD4   2000005       1 1700605 17006062000000620000005      0.        
CQUAD4   2000006       1 1700606 17006072000000720000006      0.        
CQUAD4   2000007       1 1700607 17006082000000820000007      0.        
CQUAD4   2000008       1 1700608 17006092000000920000008      0.        
CQUAD4   2000009       1 1700609 17006102000001020000009      0.        
CQUAD4   2000010       1 1700610 17006112000001120000010      0.        
CQUAD4   2000011       1 1700611 17006122000001220000011      0.        
CQUAD4   2000012       1 1700612 17006132000001320000012      0.        
CQUAD4   2000013       1 1700613 17006142000001420000013      0.        
CQUAD4   2000014       1 1700614 17006152000001520000014      0.        
CQUAD4   2000015       1 1700615 17006162000001620000015      0.        
CQUAD4   2000016       1 1700616 17006172000001720000016      0.        
$ ... 21 like lines cut
CHEXA    2000039     105 1700663 1700664 1700644 17006432000013920000140+       
+       2000016020000159                                                        
CHEXA    2000040     105 1700664 1700665 1700645 17006442000014020000141+       
+       2000016120000160                                                        
CHEXA    2000041     105 1700665 1700666 1700646 17006452000014120000142+       
+       2000016220000161                                                        
CHEXA    2000042     105 1700666 1700667 1700647 17006462000014220000143+       
+       2000016320000162                                                        
CHEXA    2000043     105 1700667 1700668 1700648 17006472000014320000144+       
+       2000016420000163                                                        
CHEXA    2000044     105 1700668 1700669 1700649 17006482000014420000145+       
+       2000016520000164                                                        
CHEXA    2000045     105 1700669 1700670 1700650 17006492000014520000146+       
+       2000016620000165                                                        
CHEXA    2000046     105 1700670 1700671 1700651 17006502000014620000147+       
+       2000016720000166                                                        
CHEXA    2000047     105 1700671 1700672 1700652 17006512000014720000148+       
+       2000016820000167                                                        
CHEXA    2000048     105 1700672 1700673 1700653 17006522000014820000149+       
+       2000016920000168                                                        
CHEXA    2000049     105 1700673 1700674 1700654 17006532000014920000150+       
+       2000017020000169                                                        
CHEXA    2000050     105 1700674 1700675 1700655 17006542000015020000151+       
+       2000017120000170                                                        
CHEXA    2000051     105 1700675 1700676 1700656 17006552000015120000152+       
+       2000017220000171                                                        
CHEXA    2000052     105 1700676 1700677 1700657 17006562000015220000153+       
+       2000017320000172                                                        
CHEXA    2000053     105 1700677 1700678 1700658 17006572000015320000154+       
+       2000017420000173                                                        
CHEXA    2000054     105 1700678 1700660 1700640 17006582000015420000155+       
+       2000017520000174                                                        
CHEXA    2000055     105 1700660 1700661 1700641 17006402000015520000156+       
+       2000017620000175                                                        
CHEXA    2000056     105 1700661 1700662 1700642 17006412000015620000157+       
+       2000017720000176                                                        
CHEXA    2000057     105 1700662 1700663 1700643 17006422000015720000139+       
+       2000015920000177                                                        
CHEXA    2000058     105 1700643 1700644 1700624 17006232000015920000160+       
+       2000018020000179                                                        
$ ... 986 like lines cut
ENDDATA
